*Heading
** Job name: Fail Model name: Fail
** Generated by: Abaqus/CAE 2019
*Preprint, echo=NO, model=NO, history=NO, contact=NO
**
** PARTS
**
*Part, name=dia
*Node
      1,  -14.9812384,        -0.75,       105.75
      2,           0.,        -0.75,         120.
      3,           0.,         13.5,         120.
      4,           0.,         -15.,         120.
      5,   14.9812384,        -0.75,       105.75
      6,   -1.9595598,   13.3715153,   119.871513
      7,  -3.85485363,   12.9961653,   119.496162
      8,  -5.63475752,   12.4014063,   118.901405
      9,  -7.26673794,   11.6223574,    118.12236
     10,   -8.7349987,   10.6942329,   117.194229
     11,  -10.0356703,   9.64828491,   116.148285
     12,  -11.1713371,   8.51011848,   115.010117
     13,  -12.1474438,   7.30007792,   113.800079
     14,  -12.9704418,   6.03431797,   112.534317
     15,  -13.6469069,   4.72581959,   111.225822
     16,  -14.1822672,   3.38500977,    109.88501
     17,  -14.5809975,   2.02058244,   108.520584
     18,  -14.8465586,  0.640022993,   107.140022
     19,  -14.7349329,        -0.75,   107.807442
     20,  -14.2074375,        -0.75,    109.81131
** ... 301 like lines cut
*Element, type=S4R
 1,  14,  15, 104,  95
 2,  15,  16, 105, 104
 3,  16,  17, 106, 105
 4,  17,  18, 107, 106
 5,  18,   1,  19, 107
 6,  95, 104,  94,  90
 7, 104, 105,  93,  94
 8, 105, 106,  92,  93
 9, 106, 107,  91,  92
10, 107,  19,  20,  91
11,  20,  21, 108,  91
12,  21,  22, 109, 108
13,  22,  23, 110, 109
14,  23,  24, 111, 110
15,  24,  25, 112, 111
16,  25,  26, 113, 112
17,  26,  27, 114, 113
18,  27,  28, 115, 114
19,  28,   2,  29, 115
20,  91, 108, 116,  92
** ... 272 like lines cut
*Nset, nset=_PickedSet2, internal, generate
   1,  321,    1
*Elset, elset=_PickedSet2, internal, generate
   1,  292,    1
** Section: thin015
*Shell Section, elset=_PickedSet2, material=PET, offset=SPOS
0.15, 5
*End Part
**  
*Part, name=rigid-L
*Node
      1,         -15.,           0.,        80.75
      2,   -16.666666,           0.,        80.75
      3,   -18.333334,           0.,        80.75
      4,         -20.,           0.,        80.75
      5,         -15.,           0.,        82.75
      6,   -16.666666,           0.,        82.75
      7,   -18.333334,           0.,        82.75
      8,         -20.,           0.,        82.75
      9,         -15.,           0.,        84.75
     10,   -16.666666,           0.,        84.75
     11,   -18.333334,           0.,        84.75
     12,         -20.,           0.,        84.75
     13,         -15.,           0.,        86.75
     14,   -16.666666,           0.,        86.75
     15,   -18.333334,           0.,        86.75
     16,         -20.,           0.,        86.75
     17,         -15.,           0.,        88.75
     18,   -16.666666,           0.,        88.75
     19,   -18.333334,           0.,        88.75
     20,         -20.,           0.,        88.75
** ... 84 like lines cut
*Element, type=R3D4
 1,   1,   2,   6,   5
 2,   2,   3,   7,   6
 3,   3,   4,   8,   7
 4,   5,   6,  10,   9
 5,   6,   7,  11,  10
 6,   7,   8,  12,  11
 7,   9,  10,  14,  13
 8,  10,  11,  15,  14
 9,  11,  12,  16,  15
10,  13,  14,  18,  17
11,  14,  15,  19,  18
12,  15,  16,  20,  19
13,  17,  18,  22,  21
14,  18,  19,  23,  22
15,  19,  20,  24,  23
16,  21,  22,  26,  25
17,  22,  23,  27,  26
18,  23,  24,  28,  27
19,  25,  26,  30,  29
20,  26,  27,  31,  30
** ... 55 like lines cut
*Node
    105,         -20., -1.39288099e-15,       130.75
*Nset, nset=rigid-L-RefPt_, internal
105, 
*Elset, elset=rigid-L, generate
  1,  75,   1
*End Part
**  
*Part, name=rigid-R
*Node
      1,          15.,           0.,        80.75
      2,          15.,           0.,        82.75
      3,          15.,           0.,        84.75
      4,          15.,           0.,        86.75
      5,          15.,           0.,        88.75
      6,          15.,           0.,        90.75
      7,          15.,           0.,        92.75
      8,          15.,           0.,        94.75
      9,          15.,           0.,        96.75
     10,          15.,           0.,        98.75
     11,          15.,           0.,       100.75
     12,          15.,           0.,       102.75
     13,          15.,           0.,       104.75
     14,          15.,           0.,       106.75
     15,          15.,           0.,       108.75
     16,          15.,           0.,       110.75
     17,          15.,           0.,       112.75
     18,          15.,           0.,       114.75
     19,          15.,           0.,       116.75
     20,          15.,           0.,       118.75
** ... 84 like lines cut
*Element, type=R3D4
 1,   1,   2,  28,  27
 2,   2,   3,  29,  28
 3,   3,   4,  30,  29
 4,   4,   5,  31,  30
 5,   5,   6,  32,  31
 6,   6,   7,  33,  32
 7,   7,   8,  34,  33
 8,   8,   9,  35,  34
 9,   9,  10,  36,  35
10,  10,  11,  37,  36
11,  11,  12,  38,  37
12,  12,  13,  39,  38
13,  13,  14,  40,  39
14,  14,  15,  41,  40
15,  15,  16,  42,  41
16,  16,  17,  43,  42
17,  17,  18,  44,  43
18,  18,  19,  45,  44
19,  19,  20,  46,  45
20,  20,  21,  47,  46
** ... 55 like lines cut
*Node
    105,          20., -1.39288099e-15,       130.75
*Nset, nset=rigid-R-RefPt_, internal
105, 
*Elset, elset=rigid-R, generate
  1,  75,   1
*End Part
**  
*Part, name=skin-bot
*Node
      1,           0.,         -15.,       130.75
      2,          15.,           0.,       130.75
      3,          15.,           0.,        80.75
      4,           0.,         -15.,        80.75
      5,         -15.,           0.,       130.75
      6,         -15.,           0.,        80.75
      7,   1.95789278,  -14.8716726,       130.75
      8,   3.88228536,  -14.4888878,       130.75
      9,   5.74025106,  -13.8581934,       130.75
     10,          7.5,  -12.9903812,       130.75
     11,   9.13142109,     -11.9003,       130.75
     12,   10.6066017,  -10.6066017,       130.75
     13,      11.9003,  -9.13142109,       130.75
     14,   12.9903812,         -7.5,       130.75
     15,   13.8581934,  -5.74025154,       130.75
     16,   14.4888878,  -3.88228536,       130.75
     17,   14.8716726,  -1.95789218,       130.75
     18,          15.,           0.,       128.75
     19,          15.,           0.,       126.75
     20,          15.,           0.,       124.75
** ... 630 like lines cut
*Element, type=S4R
  1,   1,   7, 123,  76
  2,   7,   8, 124, 123
  3,   8,   9, 125, 124
  4,   9,  10, 126, 125
  5,  10,  11, 127, 126
  6,  11,  12, 128, 127
  7,  12,  13, 129, 128
  8,  13,  14, 130, 129
  9,  14,  15, 131, 130
 10,  15,  16, 132, 131
 11,  16,  17, 133, 132
 12,  17,   2,  18, 133
 13,  76, 123, 134,  75
 14, 123, 124, 135, 134
 15, 124, 125, 136, 135
 16, 125, 126, 137, 136
 17, 126, 127, 138, 137
 18, 127, 128, 139, 138
 19, 128, 129, 140, 139
 20, 129, 130, 141, 140
** ... 580 like lines cut
*Nset, nset=_PickedSet2, internal, generate
   1,  650,    1
*Elset, elset=_PickedSet2, internal, generate
   1,  600,    1
** Section: thin015
*Shell Section, elset=_PickedSet2, material=PET, offset=SPOS
0.15, 5
*End Part
**  
*Part, name=skin-top
*Node
      1,           0.,          15.,       130.75
      2,          15.,           0.,       130.75
      3,          15.,           0.,        80.75
      4,           0.,          15.,        80.75
      5,         -15.,           0.,       130.75
      6,         -15.,           0.,        80.75
      7,   1.95789278,   14.8716726,       130.75
      8,   3.88228536,   14.4888878,       130.75
      9,   5.74025106,   13.8581934,       130.75
     10,          7.5,   12.9903812,       130.75
     11,   9.13142109,      11.9003,       130.75
     12,   10.6066017,   10.6066017,       130.75
     13,      11.9003,   9.13142109,       130.75
     14,   12.9903812,          7.5,       130.75
     15,   13.8581934,   5.74025154,       130.75
     16,   14.4888878,   3.88228536,       130.75
     17,   14.8716726,   1.95789218,       130.75
     18,          15.,           0.,       128.75
     19,          15.,           0.,       126.75
     20,          15.,           0.,       124.75
** ... 630 like lines cut
*Element, type=S4R
  1,   1,   7, 123,  76
  2,   7,   8, 124, 123
  3,   8,   9, 125, 124
  4,   9,  10, 126, 125
  5,  10,  11, 127, 126
  6,  11,  12, 128, 127
  7,  12,  13, 129, 128
  8,  13,  14, 130, 129
  9,  14,  15, 131, 130
 10,  15,  16, 132, 131
 11,  16,  17, 133, 132
 12,  17,   2,  18, 133
 13,  76, 123, 134,  75
 14, 123, 124, 135, 134
 15, 124, 125, 136, 135
 16, 125, 126, 137, 136
 17, 126, 127, 138, 137
 18, 127, 128, 139, 138
 19, 128, 129, 140, 139
 20, 129, 130, 141, 140
** ... 580 like lines cut
*Nset, nset=_PickedSet2, internal, generate
   1,  650,    1
*Elset, elset=_PickedSet2, internal, generate
   1,  600,    1
** Section: thin015
*Shell Section, elset=_PickedSet2, material=PET, offset=SNEG
0.15, 5
*End Part
**  
**
** ASSEMBLY
**
*Assembly, name=Assembly
**  
*Instance, name=dia-4, part=dia
*End Instance
**  
*Instance, name=rigid-L-1, part=rigid-L
*End Instance
**  
*Instance, name=rigid-R-1, part=rigid-R
*End Instance
**  
*Instance, name=skin-bot-1, part=skin-bot
*End Instance
**  
*Instance, name=skin-top-1, part=skin-top
*End Instance
**  
*Nset, nset=ALL, instance=dia-4, generate
   1,  321,    1
*Nset, nset=ALL, instance=rigid-L-1, generate
   1,  105,    1
*Nset, nset=ALL, instance=rigid-R-1, generate
   1,  105,    1
*Nset, nset=ALL, instance=skin-top-1, generate
   1,  650,    1
*Nset, nset=ALL, instance=skin-bot-1, generate
   1,  650,    1
*Elset, elset=ALL, instance=dia-4, generate
   1,  292,    1
*Elset, elset=ALL, instance=rigid-L-1, generate
  1,  75,   1
*Elset, elset=ALL, instance=rigid-R-1, generate
  1,  75,   1
*Elset, elset=ALL, instance=skin-top-1, generate
   1,  600,    1
*Elset, elset=ALL, instance=skin-bot-1, generate
   1,  600,    1
*Nset, nset=RP-L, instance=rigid-L-1
 105,
*Nset, nset=RP-R, instance=rigid-R-1
 105,
*Nset, nset=RP-srf-all, instance=rigid-L-1, generate
   1,  104,    1
*Nset, nset=RP-srf-all, instance=rigid-R-1, generate
   1,  104,    1
*Elset, elset=RP-srf-all, instance=rigid-L-1, generate
  1,  75,   1
*Elset, elset=RP-srf-all, instance=rigid-R-1, generate
  1,  75,   1
*Nset, nset=Set-26, instance=dia-4
  4,  5, 77, 78, 79, 80, 81, 82, 83, 84, 85, 86, 87, 88, 89
*Elset, elset=Set-26, instance=dia-4
 266, 268, 270, 272, 274, 276, 278, 280, 282, 283, 284, 285, 286, 287
*Nset, nset=crease-bot, instance=dia-4
  1,  4,  5, 35, 36, 37, 38, 39, 40, 41, 42, 43, 44, 45, 46, 47
 77, 78, 79, 80, 81, 82, 83, 84, 85, 86, 87, 88, 89
*Elset, elset=crease-bot, instance=dia-4
  75,  77,  79,  81,  83,  84,  85,  86,  87,  88,  89,  90,  91,  92, 266, 268
 270, 272, 274, 276, 278, 280, 282, 283, 284, 285, 286, 287
*Nset, nset=dia-1, instance=dia-4, generate
   1,  321,    1
*Elset, elset=dia-1, instance=dia-4, generate
   1,  292,    1
*Nset, nset=dia-all, instance=dia-4, generate
   1,  321,    1
*Elset, elset=dia-all, instance=dia-4, generate
   1,  292,    1
*Nset, nset=dia-bot, instance=dia-4, generate
   1,  321,    1
*Elset, elset=dia-bot, instance=dia-4, generate
   1,  292,    1
*Nset, nset=edge-RP-L, instance=rigid-L-1, generate
   1,  101,    4
*Elset, elset=edge-RP-L, instance=rigid-L-1, generate
  1,  73,   3
*Nset, nset=edge-RP-R, instance=rigid-R-1, generate
  1,  26,   1
*Elset, elset=edge-RP-R, instance=rigid-R-1, generate
  1,  25,   1
*Nset, nset=edge-skin-bot-L, instance=skin-bot-1
   5,   6,  99, 100, 101, 102, 103, 104, 105, 106, 107, 108, 109, 110, 111, 112
 113, 114, 115, 116, 117, 118, 119, 120, 121, 122
*Elset, elset=edge-skin-bot-L, instance=skin-bot-1, generate
 301,  589,   12
*Nset, nset=edge-skin-bot-R, instance=skin-bot-1
  2,  3, 18, 19, 20, 21, 22, 23, 24, 25, 26, 27, 28, 29, 30, 31
 32, 33, 34, 35, 36, 37, 38, 39, 40, 41
*Elset, elset=edge-skin-bot-R, instance=skin-bot-1, generate
  12,  300,   12
*Nset, nset=edge-skin-top-L, instance=skin-top-1
   5,   6,  99, 100, 101, 102, 103, 104, 105, 106, 107, 108, 109, 110, 111, 112
 113, 114, 115, 116, 117, 118, 119, 120, 121, 122
*Elset, elset=edge-skin-top-L, instance=skin-top-1, generate
 301,  589,   12
*Nset, nset=edge-skin-top-R, instance=skin-top-1
  2,  3, 18, 19, 20, 21, 22, 23, 24, 25, 26, 27, 28, 29, 30, 31
 32, 33, 34, 35, 36, 37, 38, 39, 40, 41
*Elset, elset=edge-skin-top-R, instance=skin-top-1, generate
  12,  300,   12
*Nset, nset=edges-skin-bot, instance=skin-bot-1
   2,   3,   5,   6,  18,  19,  20,  21,  22,  23,  24,  25,  26,  27,  28,  29
  30,  31,  32,  33,  34,  35,  36,  37,  38,  39,  40,  41,  99, 100, 101, 102
 103, 104, 105, 106, 107, 108, 109, 110, 111, 112, 113, 114, 115, 116, 117, 118
 119, 120, 121, 122
*Elset, elset=edges-skin-bot, instance=skin-bot-1
  12,  24,  36,  48,  60,  72,  84,  96, 108, 120, 132, 144, 156, 168, 180, 192
 204, 216, 228, 240, 252, 264, 276, 288, 300, 301, 313, 325, 337, 349, 361, 373
 385, 397, 409, 421, 433, 445, 457, 469, 481, 493, 505, 517, 529, 541, 553, 565
 577, 589
*Nset, nset=edges-skin-top, instance=skin-top-1
   2,   3,   5,   6,  18,  19,  20,  21,  22,  23,  24,  25,  26,  27,  28,  29
  30,  31,  32,  33,  34,  35,  36,  37,  38,  39,  40,  41,  99, 100, 101, 102
 103, 104, 105, 106, 107, 108, 109, 110, 111, 112, 113, 114, 115, 116, 117, 118
 119, 120, 121, 122
*Elset, elset=edges-skin-top, instance=skin-top-1
  12,  24,  36,  48,  60,  72,  84,  96, 108, 120, 132, 144, 156, 168, 180, 192
 204, 216, 228, 240, 252, 264, 276, 288, 300, 301, 313, 325, 337, 349, 361, 373
 385, 397, 409, 421, 433, 445, 457, 469, 481, 493, 505, 517, 529, 541, 553, 565
 577, 589
*Nset, nset=part-bot, instance=dia-4, generate
   1,  321,    1
*Nset, nset=part-bot, instance=skin-bot-1, generate
   1,  650,    1
*Elset, elset=part-bot, instance=dia-4, generate
   1,  292,    1
*Elset, elset=part-bot, instance=skin-bot-1, generate
   1,  600,    1
*Nset, nset=part-top, instance=skin-top-1, generate
   1,  650,    1
*Elset, elset=part-top, instance=skin-top-1, generate
   1,  600,    1
*Nset, nset=skin-all, instance=skin-bot-1, generate
   1,  650,    1
*Nset, nset=skin-all, instance=skin-top-1, generate
   1,  650,    1
*Elset, elset=skin-all, instance=skin-bot-1, generate
   1,  600,    1
*Elset, elset=skin-all, instance=skin-top-1, generate
   1,  600,    1
*Nset, nset=skin-bot, instance=skin-bot-1, generate
   1,  650,    1
*Elset, elset=skin-bot, instance=skin-bot-1, generate
   1,  600,    1
*Nset, nset=skin-top, instance=skin-top-1, generate
   1,  650,    1
*Elset, elset=skin-top, instance=skin-top-1, generate
   1,  600,    1
*Elset, elset=_d1-front_SPOS, internal, instance=dia-4, generate
   1,  292,    1
*Surface, type=ELEMENT, name=d1-front
_d1-front_SPOS, SPOS
*Elset, elset=_skin-bot-inner_SPOS, internal, instance=skin-bot-1, generate
   1,  600,    1
*Surface, type=ELEMENT, name=skin-bot-inner
_skin-bot-inner_SPOS, SPOS
*Elset, elset=_skin-top-inner_SNEG, internal, instance=skin-top-1, generate
   1,  600,    1
*Surface, type=ELEMENT, name=skin-top-inner
_skin-top-inner_SNEG, SNEG
*Surface, type=NODE, name=crease-bot_CNS_, internal
crease-bot, 1.
*Surface, type=NODE, name=edge-RP-L_CNS_, internal
edge-RP-L, 1.
*Surface, type=NODE, name=edge-skin-bot-L_CNS_, internal
edge-skin-bot-L, 1.
*Surface, type=NODE, name=edge-RP-R_CNS_, internal
edge-RP-R, 1.
*Surface, type=NODE, name=edge-skin-bot-R_CNS_, internal
edge-skin-bot-R, 1.
*Surface, type=NODE, name=edge-skin-top-L_CNS_, internal
edge-skin-top-L, 1.
*Surface, type=NODE, name=edge-skin-top-R_CNS_, internal
edge-skin-top-R, 1.
*Rigid Body, ref node=rigid-L-1.rigid-L-RefPt_, elset=rigid-L-1.rigid-L
*Rigid Body, ref node=rigid-R-1.rigid-R-RefPt_, elset=rigid-R-1.rigid-R
** Constraint: Constraint-1
*Tie, name=Constraint-1, adjust=yes, no rotation
crease-bot_CNS_, skin-bot-inner
** Constraint: Constraint-3
*Tie, name=Constraint-3, adjust=yes, no rotation
edge-skin-bot-L_CNS_, edge-RP-L_CNS_
** Constraint: Constraint-4
*Tie, name=Constraint-4, adjust=yes, no rotation
edge-skin-bot-R_CNS_, edge-RP-R_CNS_
** Constraint: Constraint-5
*Tie, name=Constraint-5, adjust=yes, no rotation
edge-skin-top-L_CNS_, edge-skin-bot-L_CNS_
** Constraint: Constraint-6
*Tie, name=Constraint-6, adjust=yes, no rotation
edge-skin-top-R_CNS_, edge-skin-bot-R_CNS_
** Constraint: Constraint-7
*Coupling, constraint name=Constraint-7, ref node=RP-L, surface=edge-skin-bot-L_CNS_
*Kinematic
1, 1
3, 3
4, 4
5, 5
** Constraint: Constraint-8
*Coupling, constraint name=Constraint-8, ref node=RP-L, surface=edge-skin-top-L_CNS_
*Kinematic
1, 1
3, 3
4, 4
5, 5
** Constraint: Constraint-9
*Coupling, constraint name=Constraint-9, ref node=RP-R, surface=edge-skin-bot-R_CNS_
*Kinematic
1, 1
3, 3
4, 4
5, 5
** Constraint: Constraint-10
*Coupling, constraint name=Constraint-10, ref node=RP-R, surface=edge-skin-top-R_CNS_
*Kinematic
1, 1
3, 3
4, 4
5, 5
*End Assembly
** 
** MATERIALS
** 
*Material, name=PET
*Density
 1.38e-06,
*Elastic
 2299.18, 0.37
** 
** INTERACTION PROPERTIES
** 
*Surface Interaction, name=IntProp-1
*Friction
 0.2,
*Surface Behavior, pressure-overclosure=HARD
** ----------------------------------------------------------------
** 
** STEP: Step-1
** 
*Step, name=Step-1, nlgeom=YES
*Dynamic, Explicit
, 5.
*Bulk Viscosity
0.06, 1.2
** 
** BOUNDARY CONDITIONS
** 
** Name: BC-1 Type: Displacement/Rotation
*Boundary
ALL, 1, 1
ALL, 3, 3
ALL, 4, 4
ALL, 5, 5
ALL, 6, 6
** Name: BC-2 Type: Velocity/Angular velocity
*Boundary, type=VELOCITY
part-top, 2, 2, 1.
** Name: BC-3 Type: Velocity/Angular velocity
*Boundary, type=VELOCITY
part-bot, 2, 2, -1.
** 
** OUTPUT REQUESTS
** 
*Restart, write, number interval=1, time marks=NO
** 
** FIELD OUTPUT: F-Output-1
** 
*Output, field, variable=PRESELECT, number interval=200
** 
** HISTORY OUTPUT: d1
** 
*Output, history
*Energy Output, elset=dia-1
ALLSE, 
** 
** HISTORY OUTPUT: skin-bot
** 
*Energy Output, elset=skin-bot
ALLSE, 
** 
** HISTORY OUTPUT: skin-top
** 
*Energy Output, elset=skin-top
ALLSE, 
** 
** HISTORY OUTPUT: H-Output-1
** 
*Output, history, variable=PRESELECT
*End Step
** ----------------------------------------------------------------
** 
** STEP: Step-2
** 
*Step, name=Step-2, nlgeom=YES
*Dynamic, Explicit
, 8.56
*Bulk Viscosity
0.06, 1.2
** 
** BOUNDARY CONDITIONS
** 
** Name: BC-1 Type: Displacement/Rotation
*Boundary, op=NEW
** Name: BC-2 Type: Velocity/Angular velocity
*Boundary, op=NEW
** Name: BC-3 Type: Velocity/Angular velocity
*Boundary, op=NEW
** Name: BC-4 Type: Displacement/Rotation
*Boundary, op=NEW
RP-L, 2, 2
RP-L, 3, 3
RP-L, 4, 4
RP-L, 5, 5
RP-L, 6, 6
** Name: BC-5 Type: Displacement/Rotation
*Boundary, op=NEW
RP-R, 2, 2
RP-R, 3, 3
RP-R, 4, 4
RP-R, 5, 5
RP-R, 6, 6
** Name: BC-6 Type: Displacement/Rotation
*Boundary, op=NEW
edges-skin-bot, 2, 2
edges-skin-bot, 3, 3
edges-skin-bot, 4, 4
edges-skin-bot, 5, 5
** Name: BC-7 Type: Displacement/Rotation
*Boundary, op=NEW
edges-skin-top, 2, 2
edges-skin-top, 3, 3
edges-skin-top, 4, 4
edges-skin-top, 5, 5
** Name: BC-8 Type: Velocity/Angular velocity
*Boundary, op=NEW, type=VELOCITY
RP-L, 1, 1, -1.
** Name: BC-9 Type: Velocity/Angular velocity
*Boundary, op=NEW, type=VELOCITY
RP-R, 1, 1, 1.
** 
** OUTPUT REQUESTS
** 
*Restart, write, number interval=1, time marks=NO
** 
** FIELD OUTPUT: F-Output-1
** 
*Output, field, variable=PRESELECT, number interval=200
** 
** HISTORY OUTPUT: d1
** 
*Output, history
*Energy Output, elset=dia-1
ALLSE, 
** 
** HISTORY OUTPUT: skin-bot
** 
*Energy Output, elset=skin-bot
ALLSE, 
** 
** HISTORY OUTPUT: skin-top
** 
*Energy Output, elset=skin-top
ALLSE, 
** 
** HISTORY OUTPUT: H-Output-1
** 
*Output, history, variable=PRESELECT
*End Step
** ----------------------------------------------------------------
** 
** STEP: Step-3
** 
*Step, name=Step-3, nlgeom=YES
*Dynamic, Explicit
, 5.
*Bulk Viscosity
0.06, 1.2
** 
** BOUNDARY CONDITIONS
** 
** Name: BC-4 Type: Displacement/Rotation
*Boundary, op=NEW
** Name: BC-5 Type: Displacement/Rotation
*Boundary, op=NEW
** Name: BC-6 Type: Displacement/Rotation
*Boundary, op=NEW
** Name: BC-7 Type: Displacement/Rotation
*Boundary, op=NEW
** Name: BC-8 Type: Velocity/Angular velocity
*Boundary, op=NEW
** Name: BC-9 Type: Velocity/Angular velocity
*Boundary, op=NEW
** Name: BC-10 Type: Displacement/Rotation
*Boundary, op=NEW
RP-L, 1, 1
RP-L, 3, 3
RP-L, 4, 4
RP-L, 5, 5
RP-L, 6, 6
** Name: BC-11 Type: Displacement/Rotation
*Boundary, op=NEW
RP-R, 1, 1
RP-R, 3, 3
RP-R, 4, 4
RP-R, 5, 5
RP-R, 6, 6
** Name: BC-12 Type: Displacement/Rotation
*Boundary, op=NEW
edges-skin-bot, 1, 1
edges-skin-bot, 3, 3
edges-skin-bot, 4, 4
edges-skin-bot, 5, 5
** Name: BC-13 Type: Displacement/Rotation
*Boundary, op=NEW
edges-skin-top, 1, 1
edges-skin-top, 3, 3
edges-skin-top, 4, 4
edges-skin-top, 5, 5
** Name: BC-14 Type: Velocity/Angular velocity
*Boundary, op=NEW, type=VELOCITY
edges-skin-bot, 2, 2, 1.
** Name: BC-15 Type: Velocity/Angular velocity
*Boundary, op=NEW, type=VELOCITY
edges-skin-top, 2, 2, -1.
** 
** INTERACTIONS
** 
** Interaction: Int-1
*Contact, op=NEW
*Contact Inclusions, ALL EXTERIOR
*Contact Property Assignment
 ,  , IntProp-1
** 
** OUTPUT REQUESTS
** 
*Restart, write, number interval=1, time marks=NO
** 
** FIELD OUTPUT: F-Output-1
** 
*Output, field, variable=PRESELECT, number interval=200
** 
** HISTORY OUTPUT: d1
** 
*Output, history
*Energy Output, elset=dia-1
ALLSE, 
** 
** HISTORY OUTPUT: skin-bot
** 
*Energy Output, elset=skin-bot
ALLSE, 
** 
** HISTORY OUTPUT: skin-top
** 
*Energy Output, elset=skin-top
ALLSE, 
** 
** HISTORY OUTPUT: H-Output-1
** 
*Output, history, variable=PRESELECT
*End Step
** ----------------------------------------------------------------
** 
** STEP: Step-4
** 
*Step, name=Step-4, nlgeom=YES
*Dynamic, Explicit
, 17.12
*Bulk Viscosity
0.06, 1.2
** 
** BOUNDARY CONDITIONS
** 
** Name: BC-10 Type: Displacement/Rotation
*Boundary, op=NEW
** Name: BC-11 Type: Displacement/Rotation
*Boundary, op=NEW
** Name: BC-12 Type: Displacement/Rotation
*Boundary, op=NEW
** Name: BC-13 Type: Displacement/Rotation
*Boundary, op=NEW
** Name: BC-14 Type: Velocity/Angular velocity
*Boundary, op=NEW
** Name: BC-15 Type: Velocity/Angular velocity
*Boundary, op=NEW
** Name: BC-16 Type: Displacement/Rotation
*Boundary, op=NEW
RP-L, 1, 1
RP-L, 2, 2
RP-L, 3, 3
RP-L, 4, 4
RP-L, 5, 5
RP-L, 6, 6
** Name: BC-17 Type: Displacement/Rotation
*Boundary, op=NEW
RP-R, 2, 2
RP-R, 3, 3
RP-R, 4, 4
RP-R, 5, 5
RP-R, 6, 6
** Name: BC-18 Type: Displacement/Rotation
*Boundary, op=NEW
edges-skin-bot, 2, 2
edges-skin-bot, 3, 3
edges-skin-bot, 4, 4
edges-skin-bot, 5, 5
** Name: BC-19 Type: Displacement/Rotation
*Boundary, op=NEW
edges-skin-top, 2, 2
edges-skin-top, 3, 3
edges-skin-top, 4, 4
edges-skin-top, 5, 5
** Name: BC-21 Type: Velocity/Angular velocity
*Boundary, op=NEW, type=VELOCITY
RP-R, 1, 1, -1.
** 
** OUTPUT REQUESTS
** 
*Restart, write, number interval=1, time marks=NO
** 
** FIELD OUTPUT: F-Output-1
** 
*Output, field, variable=PRESELECT, number interval=200
** 
** HISTORY OUTPUT: d1
** 
*Output, history
*Energy Output, elset=dia-1
ALLSE, 
** 
** HISTORY OUTPUT: skin-bot
** 
*Energy Output, elset=skin-bot
ALLSE, 
** 
** HISTORY OUTPUT: skin-top
** 
*Energy Output, elset=skin-top
ALLSE, 
** 
** HISTORY OUTPUT: H-Output-1
** 
*Output, history, variable=PRESELECT
*End Step
