*Heading
** Job name: V-V-V Model name: V-V-V
** Generated by: Abaqus/CAE 2019
*Preprint, echo=NO, model=NO, history=NO, contact=NO
**
** PARTS
**
*Part, name=d1-15
*Node
      1,  -14.9812384,        -0.75,        30.75
      2,           0.,        -0.75,          45.
      3,           0.,         13.5,          45.
      4,           0.,         -15.,          45.
      5,   14.9812384,        -0.75,        30.75
      6,   -1.9595598,   13.3715153,   44.8715134
      7,  -3.85485363,   12.9961653,   44.4961662
      8,  -5.63475752,   12.4014063,   43.9014053
      9,  -7.26673794,   11.6223574,   43.1223564
     10,   -8.7349987,   10.6942329,   42.1942329
     11,  -10.0356703,   9.64828491,   41.1482849
     12,  -11.1713371,   8.51011848,   40.0101166
     13,  -12.1474438,   7.30007792,   38.8000793
     14,  -12.9704418,   6.03431797,    37.534317
     15,  -13.6469069,   4.72581959,   36.2258186
     16,  -14.1822672,   3.38500977,   34.8850098
     17,  -14.5809975,   2.02058244,   33.5205841
     18,  -14.8465586,  0.640024364,   32.1400223
     19,  -14.7349329,        -0.75,   32.8074417
     20,  -14.2074375,        -0.75,   34.8113098
** ... 301 like lines cut
*Element, type=S4
 1,  14,  15, 104,  95
 2,  15,  16, 105, 104
 3,  16,  17, 106, 105
 4,  17,  18, 107, 106
 5,  18,   1,  19, 107
 6,  95, 104,  94,  90
 7, 104, 105,  93,  94
 8, 105, 106,  92,  93
 9, 106, 107,  91,  92
10, 107,  19,  20,  91
11,  20,  21, 108,  91
12,  21,  22, 109, 108
13,  22,  23, 110, 109
14,  23,  24, 111, 110
15,  24,  25, 112, 111
16,  25,  26, 113, 112
17,  26,  27, 114, 113
18,  27,  28, 115, 114
19,  28,   2,  29, 115
20,  91, 108, 116,  92
** ... 272 like lines cut
*Nset, nset=_PickedSet2, internal, generate
   1,  321,    1
*Elset, elset=_PickedSet2, internal, generate
   1,  292,    1
** Section: thin02
*Shell Section, elset=_PickedSet2, material=PET, offset=SPOS
0.15, 5
*End Part
**  
*Part, name=d2-15
*Node
      1,  -14.9812384,         0.75,        68.25
      2,           0.,         0.75,         82.5
      3,           0.,          15.,         82.5
      4,           0.,        -13.5,         82.5
      5,   14.9812384,         0.75,        68.25
      6,   -1.9595598,   14.8715153,   82.3715134
      7,  -3.85485363,   14.4961653,   81.9961624
      8,  -5.63475752,   13.9014063,   81.4014053
      9,  -7.26673794,   13.1223574,   80.6223602
     10,   -8.7349987,   12.1942329,   79.6942291
     11,  -10.0356703,   11.1482849,   78.6482849
     12,  -11.1713371,   10.0101185,   77.5101166
     13,  -12.1474438,   8.80007744,   76.3000793
     14,  -12.9704418,   7.53431797,    75.034317
     15,  -13.6469069,   6.22581959,   73.7258224
     16,  -14.1822672,   4.88500977,   72.3850098
     17,  -14.5809975,   3.52058244,   71.0205841
     18,  -14.8465586,   2.14002299,   69.6400223
     19,  -14.7349329,         0.75,   70.3074417
     20,  -14.2074375,         0.75,   72.3113098
** ... 301 like lines cut
*Element, type=S4
 1,  14,  15, 104,  95
 2,  15,  16, 105, 104
 3,  16,  17, 106, 105
 4,  17,  18, 107, 106
 5,  18,   1,  19, 107
 6,  95, 104,  94,  90
 7, 104, 105,  93,  94
 8, 105, 106,  92,  93
 9, 106, 107,  91,  92
10, 107,  19,  20,  91
11,  20,  21, 108,  91
12,  21,  22, 109, 108
13,  22,  23, 110, 109
14,  23,  24, 111, 110
15,  24,  25, 112, 111
16,  25,  26, 113, 112
17,  26,  27, 114, 113
18,  27,  28, 115, 114
19,  28,   2,  29, 115
20,  91, 108, 116,  92
** ... 272 like lines cut
*Nset, nset=_PickedSet2, internal, generate
   1,  321,    1
*Elset, elset=_PickedSet2, internal, generate
   1,  292,    1
** Section: thin02
*Shell Section, elset=_PickedSet2, material=PET, offset=SPOS
0.15, 5
*End Part
**  
*Part, name=d3-15
*Node
      1,  -14.9812384,        -0.75,       105.75
      2,           0.,        -0.75,         120.
      3,           0.,         13.5,         120.
      4,           0.,         -15.,         120.
      5,   14.9812384,        -0.75,       105.75
      6,   -1.9595598,   13.3715153,   119.871513
      7,  -3.85485363,   12.9961653,   119.496162
      8,  -5.63475752,   12.4014063,   118.901405
      9,  -7.26673794,   11.6223574,    118.12236
     10,   -8.7349987,   10.6942329,   117.194229
     11,  -10.0356703,   9.64828491,   116.148285
     12,  -11.1713371,   8.51011848,   115.010117
     13,  -12.1474438,   7.30007792,   113.800079
     14,  -12.9704418,   6.03431797,   112.534317
     15,  -13.6469069,   4.72581959,   111.225822
     16,  -14.1822672,   3.38500977,    109.88501
     17,  -14.5809975,   2.02058244,   108.520584
     18,  -14.8465586,  0.640022993,   107.140022
     19,  -14.7349329,        -0.75,   107.807442
     20,  -14.2074375,        -0.75,    109.81131
** ... 301 like lines cut
*Element, type=S4
 1,  14,  15, 104,  95
 2,  15,  16, 105, 104
 3,  16,  17, 106, 105
 4,  17,  18, 107, 106
 5,  18,   1,  19, 107
 6,  95, 104,  94,  90
 7, 104, 105,  93,  94
 8, 105, 106,  92,  93
 9, 106, 107,  91,  92
10, 107,  19,  20,  91
11,  20,  21, 108,  91
12,  21,  22, 109, 108
13,  22,  23, 110, 109
14,  23,  24, 111, 110
15,  24,  25, 112, 111
16,  25,  26, 113, 112
17,  26,  27, 114, 113
18,  27,  28, 115, 114
19,  28,   2,  29, 115
20,  91, 108, 116,  92
** ... 272 like lines cut
*Nset, nset=_PickedSet2, internal, generate
   1,  321,    1
*Elset, elset=_PickedSet2, internal, generate
   1,  292,    1
** Section: thin02
*Shell Section, elset=_PickedSet2, material=PET, offset=SPOS
0.15, 5
*End Part
**  
*Part, name=f-RP-L
*Node
      1,         -15.,           0.,         150.
      2,         -15.,           0.,         148.
      3,         -15.,           0.,         146.
      4,         -15.,           0.,         144.
      5,         -15.,           0.,         142.
      6,         -15.,           0.,         140.
      7,         -15.,           0.,         138.
      8,         -15.,           0.,         136.
      9,         -15.,           0.,         134.
     10,         -15.,           0.,         132.
     11,         -15.,           0.,         130.
     12,         -15.,           0.,         128.
     13,         -15.,           0.,         126.
     14,         -15.,           0.,         124.
     15,         -15.,           0.,         122.
     16,         -15.,           0.,         120.
     17,         -15.,           0.,         118.
     18,         -15.,           0.,         116.
     19,         -15.,           0.,         114.
     20,         -15.,           0.,         112.
** ... 284 like lines cut
*Element, type=R3D4
  1,   1,   2,  78,  77
  2,   2,   3,  79,  78
  3,   3,   4,  80,  79
  4,   4,   5,  81,  80
  5,   5,   6,  82,  81
  6,   6,   7,  83,  82
  7,   7,   8,  84,  83
  8,   8,   9,  85,  84
  9,   9,  10,  86,  85
 10,  10,  11,  87,  86
 11,  11,  12,  88,  87
 12,  12,  13,  89,  88
 13,  13,  14,  90,  89
 14,  14,  15,  91,  90
 15,  15,  16,  92,  91
 16,  16,  17,  93,  92
 17,  17,  18,  94,  93
 18,  18,  19,  95,  94
 19,  19,  20,  96,  95
 20,  20,  21,  97,  96
** ... 205 like lines cut
*Node
    305,         -20., -1.39288099e-15,         150.
*Nset, nset=f-RP-L-RefPt_, internal
305, 
*Elset, elset=f-RP-L, generate
   1,  225,    1
*End Part
**  
*Part, name=f-RP-R
*Node
      1,          15.,           0.,         150.
      2,    16.666666,           0.,         150.
      3,    18.333334,           0.,         150.
      4,          20.,           0.,         150.
      5,          15.,           0.,         148.
      6,    16.666666,           0.,         148.
      7,    18.333334,           0.,         148.
      8,          20.,           0.,         148.
      9,          15.,           0.,         146.
     10,    16.666666,           0.,         146.
     11,    18.333334,           0.,         146.
     12,          20.,           0.,         146.
     13,          15.,           0.,         144.
     14,    16.666666,           0.,         144.
     15,    18.333334,           0.,         144.
     16,          20.,           0.,         144.
     17,          15.,           0.,         142.
     18,    16.666666,           0.,         142.
     19,    18.333334,           0.,         142.
     20,          20.,           0.,         142.
** ... 284 like lines cut
*Element, type=R3D4
  1,   1,   2,   6,   5
  2,   2,   3,   7,   6
  3,   3,   4,   8,   7
  4,   5,   6,  10,   9
  5,   6,   7,  11,  10
  6,   7,   8,  12,  11
  7,   9,  10,  14,  13
  8,  10,  11,  15,  14
  9,  11,  12,  16,  15
 10,  13,  14,  18,  17
 11,  14,  15,  19,  18
 12,  15,  16,  20,  19
 13,  17,  18,  22,  21
 14,  18,  19,  23,  22
 15,  19,  20,  24,  23
 16,  21,  22,  26,  25
 17,  22,  23,  27,  26
 18,  23,  24,  28,  27
 19,  25,  26,  30,  29
 20,  26,  27,  31,  30
** ... 205 like lines cut
*Node
    305,          20., -1.39288099e-15,         150.
*Nset, nset=f-RP-R-RefPt_, internal
305, 
*Elset, elset=f-RP-R, generate
   1,  225,    1
*End Part
**  
*Part, name=f-skin-bot
*Node
      1,           0.,         -15.,           0.
      2,           0.,         -15.,         150.
      3,          15.,           0.,         150.
      4,          15.,           0.,           0.
      5,         -15.,           0.,           0.
      6,         -15.,           0.,         150.
      7,           0.,         -15.,           2.
      8,           0.,         -15.,           4.
      9,           0.,         -15.,           6.
     10,           0.,         -15.,           8.
     11,           0.,         -15.,          10.
     12,           0.,         -15.,          12.
     13,           0.,         -15.,          14.
     14,           0.,         -15.,          16.
     15,           0.,         -15.,          18.
     16,           0.,         -15.,          20.
     17,           0.,         -15.,          22.
     18,           0.,         -15.,          24.
     19,           0.,         -15.,          26.
     20,           0.,         -15.,          28.
** ... 1880 like lines cut
*Element, type=S4
  1,    1,    7,  273,  176
  2,    7,    8,  274,  273
  3,    8,    9,  275,  274
  4,    9,   10,  276,  275
  5,   10,   11,  277,  276
  6,   11,   12,  278,  277
  7,   12,   13,  279,  278
  8,   13,   14,  280,  279
  9,   14,   15,  281,  280
 10,   15,   16,  282,  281
 11,   16,   17,  283,  282
 12,   17,   18,  284,  283
 13,   18,   19,  285,  284
 14,   19,   20,  286,  285
 15,   20,   21,  287,  286
 16,   21,   22,  288,  287
 17,   22,   23,  289,  288
 18,   23,   24,  290,  289
 19,   24,   25,  291,  290
 20,   25,   26,  292,  291
** ... 1780 like lines cut
*Nset, nset=_PickedSet5, internal, generate
    1,  1900,     1
*Elset, elset=_PickedSet5, internal, generate
    1,  1800,     1
** Section: thin015
*Shell Section, elset=_PickedSet5, material=PET, offset=SPOS
0.15, 5
*End Part
**  
*Part, name=f-skin-top
*Node
      1,           0.,          15.,           0.
      2,           0.,          15.,         150.
      3,          15.,           0.,         150.
      4,          15.,           0.,           0.
      5,         -15.,           0.,           0.
      6,         -15.,           0.,         150.
      7,           0.,          15.,           2.
      8,           0.,          15.,           4.
      9,           0.,          15.,           6.
     10,           0.,          15.,           8.
     11,           0.,          15.,          10.
     12,           0.,          15.,          12.
     13,           0.,          15.,          14.
     14,           0.,          15.,          16.
     15,           0.,          15.,          18.
     16,           0.,          15.,          20.
     17,           0.,          15.,          22.
     18,           0.,          15.,          24.
     19,           0.,          15.,          26.
     20,           0.,          15.,          28.
** ... 1880 like lines cut
*Element, type=S4
  1,    1,    7,  273,  176
  2,    7,    8,  274,  273
  3,    8,    9,  275,  274
  4,    9,   10,  276,  275
  5,   10,   11,  277,  276
  6,   11,   12,  278,  277
  7,   12,   13,  279,  278
  8,   13,   14,  280,  279
  9,   14,   15,  281,  280
 10,   15,   16,  282,  281
 11,   16,   17,  283,  282
 12,   17,   18,  284,  283
 13,   18,   19,  285,  284
 14,   19,   20,  286,  285
 15,   20,   21,  287,  286
 16,   21,   22,  288,  287
 17,   22,   23,  289,  288
 18,   23,   24,  290,  289
 19,   24,   25,  291,  290
 20,   25,   26,  292,  291
** ... 1780 like lines cut
*Nset, nset=_PickedSet5, internal, generate
    1,  1900,     1
*Elset, elset=_PickedSet5, internal, generate
    1,  1800,     1
** Section: thin015
*Shell Section, elset=_PickedSet5, material=PET, offset=SNEG
0.15, 5
*End Part
**  
**
** ASSEMBLY
**
*Assembly, name=Assembly
**  
*Instance, name=f-RP-L-1, part=f-RP-L
*End Instance
**  
*Instance, name=f-RP-R-1, part=f-RP-R
*End Instance
**  
*Instance, name=f-skin-bot-1, part=f-skin-bot
*End Instance
**  
*Instance, name=f-skin-top-1, part=f-skin-top
*End Instance
**  
*Instance, name=d1-15-1, part=d1-15
*End Instance
**  
*Instance, name=d2-15-1, part=d2-15
*End Instance
**  
*Instance, name=d3-15-1, part=d3-15
*End Instance
**  
*Nset, nset=ALL, instance=f-RP-L-1, generate
   1,  305,    1
*Nset, nset=ALL, instance=f-RP-R-1, generate
   1,  305,    1
*Nset, nset=ALL, instance=f-skin-bot-1, generate
    1,  1900,     1
*Nset, nset=ALL, instance=d2-15-1, generate
   1,  321,    1
*Nset, nset=ALL, instance=f-skin-top-1, generate
    1,  1900,     1
*Nset, nset=ALL, instance=d3-15-1, generate
   1,  321,    1
*Nset, nset=ALL, instance=d1-15-1, generate
   1,  321,    1
*Elset, elset=ALL, instance=f-RP-L-1, generate
   1,  225,    1
*Elset, elset=ALL, instance=f-RP-R-1, generate
   1,  225,    1
*Elset, elset=ALL, instance=f-skin-bot-1, generate
    1,  1800,     1
*Elset, elset=ALL, instance=d2-15-1, generate
   1,  292,    1
*Elset, elset=ALL, instance=f-skin-top-1, generate
    1,  1800,     1
*Elset, elset=ALL, instance=d3-15-1, generate
   1,  292,    1
*Elset, elset=ALL, instance=d1-15-1, generate
   1,  292,    1
*Nset, nset=RP-L, instance=f-RP-L-1
 305,
*Nset, nset=RP-R, instance=f-RP-R-1
 305,
*Nset, nset=RP-srf-all, instance=f-RP-L-1, generate
   1,  304,    1
*Nset, nset=RP-srf-all, instance=f-RP-R-1, generate
   1,  304,    1
*Elset, elset=RP-srf-all, instance=f-RP-L-1, generate
   1,  225,    1
*Elset, elset=RP-srf-all, instance=f-RP-R-1, generate
   1,  225,    1
*Nset, nset=crease-bot, instance=d1-15-1
  1,  4,  5, 35, 36, 37, 38, 39, 40, 41, 42, 43, 44, 45, 46, 47
 77, 78, 79, 80, 81, 82, 83, 84, 85, 86, 87, 88, 89
*Nset, nset=crease-bot, instance=d3-15-1
  1,  4,  5, 35, 36, 37, 38, 39, 40, 41, 42, 43, 44, 45, 46, 47
 77, 78, 79, 80, 81, 82, 83, 84, 85, 86, 87, 88, 89
*Elset, elset=crease-bot, instance=d1-15-1
  75,  77,  79,  81,  83,  84,  85,  86,  87,  88,  89,  90,  91,  92, 266, 268
 270, 272, 274, 276, 278, 280, 282, 283, 284, 285, 286, 287
*Elset, elset=crease-bot, instance=d3-15-1
  75,  77,  79,  81,  83,  84,  85,  86,  87,  88,  89,  90,  91,  92, 266, 268
 270, 272, 274, 276, 278, 280, 282, 283, 284, 285, 286, 287
*Nset, nset=crease-top, instance=d2-15-1
  1,  3,  5,  6,  7,  8,  9, 10, 11, 12, 13, 14, 15, 16, 17, 18
 64, 65, 66, 67, 68, 69, 70, 71, 72, 73, 74, 75, 76
*Elset, elset=crease-top, instance=d2-15-1
   1,   2,   3,   4,   5,  57,  59,  61,  63,  65,  67,  69,  71,  73, 193, 195
 197, 199, 201, 202, 203, 204, 205, 206, 207, 208, 209, 210
*Nset, nset=dia-1, instance=d1-15-1, generate
   1,  321,    1
*Elset, elset=dia-1, instance=d1-15-1, generate
   1,  292,    1
*Nset, nset=dia-2, instance=d2-15-1, generate
   1,  321,    1
*Elset, elset=dia-2, instance=d2-15-1, generate
   1,  292,    1
*Nset, nset=dia-3, instance=d3-15-1, generate
   1,  321,    1
*Elset, elset=dia-3, instance=d3-15-1, generate
   1,  292,    1
*Nset, nset=dia-all, instance=d1-15-1, generate
   1,  321,    1
*Nset, nset=dia-all, instance=d2-15-1, generate
   1,  321,    1
*Nset, nset=dia-all, instance=d3-15-1, generate
   1,  321,    1
*Elset, elset=dia-all, instance=d1-15-1, generate
   1,  292,    1
*Elset, elset=dia-all, instance=d2-15-1, generate
   1,  292,    1
*Elset, elset=dia-all, instance=d3-15-1, generate
   1,  292,    1
*Nset, nset=dia-bot, instance=d1-15-1, generate
   1,  321,    1
*Nset, nset=dia-bot, instance=d3-15-1, generate
   1,  321,    1
*Elset, elset=dia-bot, instance=d1-15-1, generate
   1,  292,    1
*Elset, elset=dia-bot, instance=d3-15-1, generate
   1,  292,    1
*Nset, nset=dia-top, instance=d2-15-1, generate
   1,  321,    1
*Elset, elset=dia-top, instance=d2-15-1, generate
   1,  292,    1
*Nset, nset=edge-RP-L, instance=f-RP-L-1, generate
  1,  76,   1
*Elset, elset=edge-RP-L, instance=f-RP-L-1, generate
  1,  75,   1
*Nset, nset=edge-RP-R, instance=f-RP-R-1, generate
   1,  301,    4
*Elset, elset=edge-RP-R, instance=f-RP-R-1, generate
   1,  223,    3
*Nset, nset=edge-skin-bot-L, instance=f-skin-bot-1
   5,   6, 188, 189, 190, 191, 192, 193, 194, 195, 196, 197, 198, 199, 200, 201
 202, 203, 204, 205, 206, 207, 208, 209, 210, 211, 212, 213, 214, 215, 216, 217
 218, 219, 220, 221, 222, 223, 224, 225, 226, 227, 228, 229, 230, 231, 232, 233
 234, 235, 236, 237, 238, 239, 240, 241, 242, 243, 244, 245, 246, 247, 248, 249
 250, 251, 252, 253, 254, 255, 256, 257, 258, 259, 260, 261
*Elset, elset=edge-skin-bot-L, instance=f-skin-bot-1, generate
  912,  1800,    12
*Nset, nset=edge-skin-bot-R, instance=f-skin-bot-1
   3,   4,  92,  93,  94,  95,  96,  97,  98,  99, 100, 101, 102, 103, 104, 105
 106, 107, 108, 109, 110, 111, 112, 113, 114, 115, 116, 117, 118, 119, 120, 121
 122, 123, 124, 125, 126, 127, 128, 129, 130, 131, 132, 133, 134, 135, 136, 137
 138, 139, 140, 141, 142, 143, 144, 145, 146, 147, 148, 149, 150, 151, 152, 153
 154, 155, 156, 157, 158, 159, 160, 161, 162, 163, 164, 165
*Elset, elset=edge-skin-bot-R, instance=f-skin-bot-1, generate
 826,  900,    1
*Nset, nset=edge-skin-top-L, instance=f-skin-top-1
   5,   6, 188, 189, 190, 191, 192, 193, 194, 195, 196, 197, 198, 199, 200, 201
 202, 203, 204, 205, 206, 207, 208, 209, 210, 211, 212, 213, 214, 215, 216, 217
 218, 219, 220, 221, 222, 223, 224, 225, 226, 227, 228, 229, 230, 231, 232, 233
 234, 235, 236, 237, 238, 239, 240, 241, 242, 243, 244, 245, 246, 247, 248, 249
 250, 251, 252, 253, 254, 255, 256, 257, 258, 259, 260, 261
*Elset, elset=edge-skin-top-L, instance=f-skin-top-1, generate
  912,  1800,    12
*Nset, nset=edge-skin-top-R, instance=f-skin-top-1
   3,   4,  92,  93,  94,  95,  96,  97,  98,  99, 100, 101, 102, 103, 104, 105
 106, 107, 108, 109, 110, 111, 112, 113, 114, 115, 116, 117, 118, 119, 120, 121
 122, 123, 124, 125, 126, 127, 128, 129, 130, 131, 132, 133, 134, 135, 136, 137
 138, 139, 140, 141, 142, 143, 144, 145, 146, 147, 148, 149, 150, 151, 152, 153
 154, 155, 156, 157, 158, 159, 160, 161, 162, 163, 164, 165
*Elset, elset=edge-skin-top-R, instance=f-skin-top-1, generate
 826,  900,    1
*Nset, nset=edges-skin-bot, instance=f-skin-bot-1
   3,   4,   5,   6,  92,  93,  94,  95,  96,  97,  98,  99, 100, 101, 102, 103
 104, 105, 106, 107, 108, 109, 110, 111, 112, 113, 114, 115, 116, 117, 118, 119
 120, 121, 122, 123, 124, 125, 126, 127, 128, 129, 130, 131, 132, 133, 134, 135
 136, 137, 138, 139, 140, 141, 142, 143, 144, 145, 146, 147, 148, 149, 150, 151
 152, 153, 154, 155, 156, 157, 158, 159, 160, 161, 162, 163, 164, 165, 188, 189
 190, 191, 192, 193, 194, 195, 196, 197, 198, 199, 200, 201, 202, 203, 204, 205
 206, 207, 208, 209, 210, 211, 212, 213, 214, 215, 216, 217, 218, 219, 220, 221
 222, 223, 224, 225, 226, 227, 228, 229, 230, 231, 232, 233, 234, 235, 236, 237
 238, 239, 240, 241, 242, 243, 244, 245, 246, 247, 248, 249, 250, 251, 252, 253
 254, 255, 256, 257, 258, 259, 260, 261
*Elset, elset=edges-skin-bot, instance=f-skin-bot-1
  826,  827,  828,  829,  830,  831,  832,  833,  834,  835,  836,  837,  838,  839,  840,  841
  842,  843,  844,  845,  846,  847,  848,  849,  850,  851,  852,  853,  854,  855,  856,  857
  858,  859,  860,  861,  862,  863,  864,  865,  866,  867,  868,  869,  870,  871,  872,  873
  874,  875,  876,  877,  878,  879,  880,  881,  882,  883,  884,  885,  886,  887,  888,  889
  890,  891,  892,  893,  894,  895,  896,  897,  898,  899,  900,  912,  924,  936,  948,  960
  972,  984,  996, 1008, 1020, 1032, 1044, 1056, 1068, 1080, 1092, 1104, 1116, 1128, 1140, 1152
 1164, 1176, 1188, 1200, 1212, 1224, 1236, 1248, 1260, 1272, 1284, 1296, 1308, 1320, 1332, 1344
 1356, 1368, 1380, 1392, 1404, 1416, 1428, 1440, 1452, 1464, 1476, 1488, 1500, 1512, 1524, 1536
 1548, 1560, 1572, 1584, 1596, 1608, 1620, 1632, 1644, 1656, 1668, 1680, 1692, 1704, 1716, 1728
 1740, 1752, 1764, 1776, 1788, 1800
*Nset, nset=edges-skin-top, instance=f-skin-top-1
   3,   4,   5,   6,  92,  93,  94,  95,  96,  97,  98,  99, 100, 101, 102, 103
 104, 105, 106, 107, 108, 109, 110, 111, 112, 113, 114, 115, 116, 117, 118, 119
 120, 121, 122, 123, 124, 125, 126, 127, 128, 129, 130, 131, 132, 133, 134, 135
 136, 137, 138, 139, 140, 141, 142, 143, 144, 145, 146, 147, 148, 149, 150, 151
 152, 153, 154, 155, 156, 157, 158, 159, 160, 161, 162, 163, 164, 165, 188, 189
 190, 191, 192, 193, 194, 195, 196, 197, 198, 199, 200, 201, 202, 203, 204, 205
 206, 207, 208, 209, 210, 211, 212, 213, 214, 215, 216, 217, 218, 219, 220, 221
 222, 223, 224, 225, 226, 227, 228, 229, 230, 231, 232, 233, 234, 235, 236, 237
 238, 239, 240, 241, 242, 243, 244, 245, 246, 247, 248, 249, 250, 251, 252, 253
 254, 255, 256, 257, 258, 259, 260, 261
*Elset, elset=edges-skin-top, instance=f-skin-top-1
  826,  827,  828,  829,  830,  831,  832,  833,  834,  835,  836,  837,  838,  839,  840,  841
  842,  843,  844,  845,  846,  847,  848,  849,  850,  851,  852,  853,  854,  855,  856,  857
  858,  859,  860,  861,  862,  863,  864,  865,  866,  867,  868,  869,  870,  871,  872,  873
  874,  875,  876,  877,  878,  879,  880,  881,  882,  883,  884,  885,  886,  887,  888,  889
  890,  891,  892,  893,  894,  895,  896,  897,  898,  899,  900,  912,  924,  936,  948,  960
  972,  984,  996, 1008, 1020, 1032, 1044, 1056, 1068, 1080, 1092, 1104, 1116, 1128, 1140, 1152
 1164, 1176, 1188, 1200, 1212, 1224, 1236, 1248, 1260, 1272, 1284, 1296, 1308, 1320, 1332, 1344
 1356, 1368, 1380, 1392, 1404, 1416, 1428, 1440, 1452, 1464, 1476, 1488, 1500, 1512, 1524, 1536
 1548, 1560, 1572, 1584, 1596, 1608, 1620, 1632, 1644, 1656, 1668, 1680, 1692, 1704, 1716, 1728
 1740, 1752, 1764, 1776, 1788, 1800
*Nset, nset=part-bot, instance=f-skin-bot-1, generate
    1,  1900,     1
*Nset, nset=part-bot, instance=d1-15-1, generate
   1,  321,    1
*Nset, nset=part-bot, instance=d3-15-1, generate
   1,  321,    1
*Elset, elset=part-bot, instance=f-skin-bot-1, generate
    1,  1800,     1
*Elset, elset=part-bot, instance=d1-15-1, generate
   1,  292,    1
*Elset, elset=part-bot, instance=d3-15-1, generate
   1,  292,    1
*Nset, nset=part-top, instance=f-skin-top-1, generate
    1,  1900,     1
*Nset, nset=part-top, instance=d2-15-1, generate
   1,  321,    1
*Elset, elset=part-top, instance=f-skin-top-1, generate
    1,  1800,     1
*Elset, elset=part-top, instance=d2-15-1, generate
   1,  292,    1
*Nset, nset=skin-all, instance=f-skin-bot-1, generate
    1,  1900,     1
*Nset, nset=skin-all, instance=f-skin-top-1, generate
    1,  1900,     1
*Elset, elset=skin-all, instance=f-skin-bot-1, generate
    1,  1800,     1
*Elset, elset=skin-all, instance=f-skin-top-1, generate
    1,  1800,     1
*Nset, nset=skin-bot, instance=f-skin-bot-1, generate
    1,  1900,     1
*Elset, elset=skin-bot, instance=f-skin-bot-1, generate
    1,  1800,     1
*Nset, nset=skin-top, instance=f-skin-top-1, generate
    1,  1900,     1
*Elset, elset=skin-top, instance=f-skin-top-1, generate
    1,  1800,     1
*Elset, elset=_d1-front_SPOS, internal, instance=d1-15-1, generate
   1,  292,    1
*Surface, type=ELEMENT, name=d1-front
_d1-front_SPOS, SPOS
*Elset, elset=_d2-front_SPOS, internal, instance=d2-15-1, generate
   1,  292,    1
*Surface, type=ELEMENT, name=d2-front
_d2-front_SPOS, SPOS
*Elset, elset=_d3-front_SPOS, internal, instance=d3-15-1, generate
   1,  292,    1
*Surface, type=ELEMENT, name=d3-front
_d3-front_SPOS, SPOS
*Elset, elset=_skin-bot-inner_SPOS, internal, instance=f-skin-bot-1, generate
    1,  1800,     1
*Surface, type=ELEMENT, name=skin-bot-inner
_skin-bot-inner_SPOS, SPOS
*Elset, elset=_skin-top-inner_SNEG, internal, instance=f-skin-top-1, generate
    1,  1800,     1
*Surface, type=ELEMENT, name=skin-top-inner
_skin-top-inner_SNEG, SNEG
*Surface, type=NODE, name=crease-bot_CNS_, internal
crease-bot, 1.
*Surface, type=NODE, name=crease-top_CNS_, internal
crease-top, 1.
*Surface, type=NODE, name=edge-RP-L_CNS_, internal
edge-RP-L, 1.
*Surface, type=NODE, name=edge-skin-bot-L_CNS_, internal
edge-skin-bot-L, 1.
*Surface, type=NODE, name=edge-RP-R_CNS_, internal
edge-RP-R, 1.
*Surface, type=NODE, name=edge-skin-bot-R_CNS_, internal
edge-skin-bot-R, 1.
*Surface, type=NODE, name=edge-skin-top-L_CNS_, internal
edge-skin-top-L, 1.
*Surface, type=NODE, name=edge-skin-top-R_CNS_, internal
edge-skin-top-R, 1.
*Rigid Body, ref node=f-RP-L-1.f-RP-L-RefPt_, elset=f-RP-L-1.f-RP-L
*Rigid Body, ref node=f-RP-R-1.f-RP-R-RefPt_, elset=f-RP-R-1.f-RP-R
** Constraint: Constraint-1
*Tie, name=Constraint-1, adjust=yes, no rotation
crease-bot_CNS_, skin-bot-inner
** Constraint: Constraint-2
*Tie, name=Constraint-2, adjust=yes, no rotation
crease-top_CNS_, skin-top-inner
** Constraint: Constraint-3
*Tie, name=Constraint-3, adjust=yes, no rotation
edge-skin-bot-L_CNS_, edge-RP-L_CNS_
** Constraint: Constraint-4
*Tie, name=Constraint-4, adjust=yes, no rotation
edge-skin-bot-R_CNS_, edge-RP-R_CNS_
** Constraint: Constraint-5
*Tie, name=Constraint-5, adjust=yes, no rotation
edge-skin-top-L_CNS_, edge-skin-bot-L_CNS_
** Constraint: Constraint-6
*Tie, name=Constraint-6, adjust=yes, no rotation
edge-skin-top-R_CNS_, edge-skin-bot-R_CNS_
** Constraint: Constraint-7
*Coupling, constraint name=Constraint-7, ref node=RP-L, surface=edge-skin-bot-L_CNS_
*Kinematic
1, 1
3, 3
4, 4
5, 5
** Constraint: Constraint-8
*Coupling, constraint name=Constraint-8, ref node=RP-L, surface=edge-skin-top-L_CNS_
*Kinematic
1, 1
3, 3
4, 4
5, 5
** Constraint: Constraint-9
*Coupling, constraint name=Constraint-9, ref node=RP-R, surface=edge-skin-bot-R_CNS_
*Kinematic
1, 1
3, 3
4, 4
5, 5
** Constraint: Constraint-10
*Coupling, constraint name=Constraint-10, ref node=RP-R, surface=edge-skin-top-R_CNS_
*Kinematic
1, 1
3, 3
4, 4
5, 5
*End Assembly
** 
** MATERIALS
** 
*Material, name=PET
*Density
 1.38e-06,
*Elastic
 2299.18, 0.37
** 
** INTERACTION PROPERTIES
** 
*Surface Interaction, name=IntProp-1
*Friction
 0.2,
*Surface Behavior, pressure-overclosure=HARD
** 
** BOUNDARY CONDITIONS
** 
** Name: BC-22 Type: Displacement/Rotation
*Boundary
crease-bot, 6, 6
** Name: BC-23 Type: Displacement/Rotation
*Boundary
crease-top, 6, 6
** ----------------------------------------------------------------
** 
** STEP: Step-1
** 
*Step, name=Step-1, nlgeom=YES
*Dynamic, Explicit
, 5.
*Bulk Viscosity
0.06, 1.2
** 
** BOUNDARY CONDITIONS
** 
** Name: BC-1 Type: Displacement/Rotation
*Boundary
ALL, 1, 1
ALL, 3, 3
ALL, 4, 4
ALL, 5, 5
ALL, 6, 6
** Name: BC-2 Type: Velocity/Angular velocity
*Boundary, type=VELOCITY
part-top, 2, 2, 1.
** Name: BC-3 Type: Velocity/Angular velocity
*Boundary, type=VELOCITY
part-bot, 2, 2, -1.
** 
** OUTPUT REQUESTS
** 
*Restart, write, number interval=1, time marks=NO
** 
** FIELD OUTPUT: F-Output-1
** 
*Output, field, variable=PRESELECT, number interval=200
** 
** HISTORY OUTPUT: d1
** 
*Output, history
*Energy Output, elset=dia-1
ALLSE, 
** 
** HISTORY OUTPUT: d2
** 
*Energy Output, elset=dia-2
ALLSE, 
** 
** HISTORY OUTPUT: d3
** 
*Energy Output, elset=dia-3
ALLSE, 
** 
** HISTORY OUTPUT: skin-bot
** 
*Energy Output, elset=skin-bot
ALLSE, 
** 
** HISTORY OUTPUT: skin-top
** 
*Energy Output, elset=skin-top
ALLSE, 
** 
** HISTORY OUTPUT: H-Output-1
** 
*Output, history, variable=PRESELECT
*End Step
** ----------------------------------------------------------------
** 
** STEP: Step-2
** 
*Step, name=Step-2, nlgeom=YES
*Dynamic, Explicit
, 8.
*Bulk Viscosity
0.06, 1.2
** 
** BOUNDARY CONDITIONS
** 
** Name: BC-1 Type: Displacement/Rotation
*Boundary, op=NEW
** Name: BC-2 Type: Velocity/Angular velocity
*Boundary, op=NEW
** Name: BC-3 Type: Velocity/Angular velocity
*Boundary, op=NEW
** Name: BC-4 Type: Displacement/Rotation
*Boundary, op=NEW
RP-L, 2, 2
RP-L, 3, 3
RP-L, 4, 4
RP-L, 5, 5
RP-L, 6, 6
** Name: BC-5 Type: Displacement/Rotation
*Boundary, op=NEW
RP-R, 2, 2
RP-R, 3, 3
RP-R, 4, 4
RP-R, 5, 5
RP-R, 6, 6
** Name: BC-6 Type: Displacement/Rotation
*Boundary, op=NEW
edges-skin-bot, 2, 2
edges-skin-bot, 3, 3
edges-skin-bot, 4, 4
edges-skin-bot, 5, 5
** Name: BC-7 Type: Displacement/Rotation
*Boundary, op=NEW
edges-skin-top, 2, 2
edges-skin-top, 3, 3
edges-skin-top, 4, 4
edges-skin-top, 5, 5
** Name: BC-8 Type: Velocity/Angular velocity
*Boundary, op=NEW, type=VELOCITY
RP-L, 1, 1, -1.
** Name: BC-9 Type: Velocity/Angular velocity
*Boundary, op=NEW, type=VELOCITY
RP-R, 1, 1, 1.
** Name: BC-22 Type: Displacement/Rotation
*Boundary, op=NEW
crease-bot, 6, 6
** Name: BC-23 Type: Displacement/Rotation
*Boundary, op=NEW
crease-top, 6, 6
** 
** OUTPUT REQUESTS
** 
*Restart, write, number interval=1, time marks=NO
** 
** FIELD OUTPUT: F-Output-1
** 
*Output, field, variable=PRESELECT, number interval=200
** 
** HISTORY OUTPUT: d1
** 
*Output, history
*Energy Output, elset=dia-1
ALLSE, 
** 
** HISTORY OUTPUT: d2
** 
*Energy Output, elset=dia-2
ALLSE, 
** 
** HISTORY OUTPUT: d3
** 
*Energy Output, elset=dia-3
ALLSE, 
** 
** HISTORY OUTPUT: skin-bot
** 
*Energy Output, elset=skin-bot
ALLSE, 
** 
** HISTORY OUTPUT: skin-top
** 
*Energy Output, elset=skin-top
ALLSE, 
** 
** HISTORY OUTPUT: H-Output-1
** 
*Output, history, variable=PRESELECT
*End Step
** ----------------------------------------------------------------
** 
** STEP: Step-3
** 
*Step, name=Step-3, nlgeom=YES
*Dynamic, Explicit
, 5.
*Bulk Viscosity
0.06, 1.2
** 
** BOUNDARY CONDITIONS
** 
** Name: BC-4 Type: Displacement/Rotation
*Boundary, op=NEW
** Name: BC-5 Type: Displacement/Rotation
*Boundary, op=NEW
** Name: BC-6 Type: Displacement/Rotation
*Boundary, op=NEW
** Name: BC-7 Type: Displacement/Rotation
*Boundary, op=NEW
** Name: BC-8 Type: Velocity/Angular velocity
*Boundary, op=NEW
** Name: BC-9 Type: Velocity/Angular velocity
*Boundary, op=NEW
** Name: BC-10 Type: Displacement/Rotation
*Boundary, op=NEW
RP-L, 1, 1
RP-L, 3, 3
RP-L, 4, 4
RP-L, 5, 5
RP-L, 6, 6
** Name: BC-11 Type: Displacement/Rotation
*Boundary, op=NEW
RP-R, 1, 1
RP-R, 3, 3
RP-R, 4, 4
RP-R, 5, 5
RP-R, 6, 6
** Name: BC-12 Type: Displacement/Rotation
*Boundary, op=NEW
edges-skin-bot, 1, 1
edges-skin-bot, 3, 3
edges-skin-bot, 4, 4
edges-skin-bot, 5, 5
** Name: BC-13 Type: Displacement/Rotation
*Boundary, op=NEW
edges-skin-top, 1, 1
edges-skin-top, 3, 3
edges-skin-top, 4, 4
edges-skin-top, 5, 5
** Name: BC-14 Type: Velocity/Angular velocity
*Boundary, op=NEW, type=VELOCITY
edges-skin-bot, 2, 2, 1.
** Name: BC-15 Type: Velocity/Angular velocity
*Boundary, op=NEW, type=VELOCITY
edges-skin-top, 2, 2, -1.
** Name: BC-22 Type: Displacement/Rotation
*Boundary, op=NEW
crease-bot, 6, 6
** Name: BC-23 Type: Displacement/Rotation
*Boundary, op=NEW
crease-top, 6, 6
** 
** INTERACTIONS
** 
** Interaction: Int-1
*Contact, op=NEW
*Contact Inclusions, ALL EXTERIOR
*Contact Property Assignment
 ,  , IntProp-1
** 
** OUTPUT REQUESTS
** 
*Restart, write, number interval=1, time marks=NO
** 
** FIELD OUTPUT: F-Output-1
** 
*Output, field, variable=PRESELECT, number interval=200
** 
** HISTORY OUTPUT: d1
** 
*Output, history
*Energy Output, elset=dia-1
ALLSE, 
** 
** HISTORY OUTPUT: d2
** 
*Energy Output, elset=dia-2
ALLSE, 
** 
** HISTORY OUTPUT: d3
** 
*Energy Output, elset=dia-3
ALLSE, 
** 
** HISTORY OUTPUT: skin-bot
** 
*Energy Output, elset=skin-bot
ALLSE, 
** 
** HISTORY OUTPUT: skin-top
** 
*Energy Output, elset=skin-top
ALLSE, 
** 
** HISTORY OUTPUT: H-Output-1
** 
*Output, history, variable=PRESELECT
*End Step
** ----------------------------------------------------------------
** 
** STEP: Step-4
** 
*Step, name=Step-4, nlgeom=YES
*Dynamic, Explicit
, 16.
*Bulk Viscosity
0.06, 1.2
** 
** BOUNDARY CONDITIONS
** 
** Name: BC-10 Type: Displacement/Rotation
*Boundary, op=NEW
** Name: BC-11 Type: Displacement/Rotation
*Boundary, op=NEW
** Name: BC-12 Type: Displacement/Rotation
*Boundary, op=NEW
** Name: BC-13 Type: Displacement/Rotation
*Boundary, op=NEW
** Name: BC-14 Type: Velocity/Angular velocity
*Boundary, op=NEW
** Name: BC-15 Type: Velocity/Angular velocity
*Boundary, op=NEW
** Name: BC-16 Type: Displacement/Rotation
*Boundary, op=NEW
RP-L, 1, 1
RP-L, 2, 2
RP-L, 3, 3
RP-L, 4, 4
RP-L, 5, 5
RP-L, 6, 6
** Name: BC-17 Type: Displacement/Rotation
*Boundary, op=NEW
RP-R, 2, 2
RP-R, 3, 3
RP-R, 4, 4
RP-R, 5, 5
RP-R, 6, 6
** Name: BC-18 Type: Displacement/Rotation
*Boundary, op=NEW
edges-skin-bot, 2, 2
edges-skin-bot, 3, 3
edges-skin-bot, 4, 4
edges-skin-bot, 5, 5
** Name: BC-19 Type: Displacement/Rotation
*Boundary, op=NEW
edges-skin-top, 2, 2
edges-skin-top, 3, 3
edges-skin-top, 4, 4
edges-skin-top, 5, 5
** Name: BC-21 Type: Velocity/Angular velocity
*Boundary, op=NEW, type=VELOCITY
RP-R, 1, 1, -1.
** Name: BC-22 Type: Displacement/Rotation
*Boundary, op=NEW
crease-bot, 6, 6
** Name: BC-23 Type: Displacement/Rotation
*Boundary, op=NEW
crease-top, 6, 6
** 
** OUTPUT REQUESTS
** 
*Restart, write, number interval=1, time marks=NO
** 
** FIELD OUTPUT: F-Output-1
** 
*Output, field, variable=PRESELECT, number interval=200
** 
** HISTORY OUTPUT: d1
** 
*Output, history
*Energy Output, elset=dia-1
ALLSE, 
** 
** HISTORY OUTPUT: d2
** 
*Energy Output, elset=dia-2
ALLSE, 
** 
** HISTORY OUTPUT: d3
** 
*Energy Output, elset=dia-3
ALLSE, 
** 
** HISTORY OUTPUT: skin-bot
** 
*Energy Output, elset=skin-bot
ALLSE, 
** 
** HISTORY OUTPUT: skin-top
** 
*Energy Output, elset=skin-top
ALLSE, 
** 
** HISTORY OUTPUT: H-Output-1
** 
*Output, history, variable=PRESELECT
*End Step
